Circuit: * D:\FHNW\4_Semester\glal4\Simulationstools\Vorbereitung1.asc

WARNING: Less than two connections to node NC_01.  This node is used by R2.

Date: Tue Mar 01 12:29:52 2016
Total elapsed time: 0.045 seconds.

tnom = 27
temp = 27
method = trap
totiter = 0
traniter = 0
tranpoints = 0
accept = 0
rejected = 0
matrix size = 8
fillins = 0
solver = Normal

